Circuit: * C:\Users\jeffr\Documents\GitHub\Uni_2023\734 Power electronics\Labs\Draft1.asc

.OP point found by inspection.

Date: Sat Mar 11 14:33:14 2023
Total elapsed time: 0.089 seconds.

tnom = 27
temp = 27
method = modified trap
totiter = 2668
traniter = 2668
tranpoints = 1335
accept = 1216
rejected = 119
matrix size = 2
fillins = 0
solver = Normal
Avg thread counts: 1.1/1.2/1.2/1.1
Matrix Compiler1: off  [0.1]/0.3/0.3
Matrix Compiler2: off  [0.1]/0.4/0.3

