Circuit: * C:\Users\jeffr\Documents\GitHub\Uni_2023\734 Power electronics\Labs\lab1task3.asc

Direct Newton iteration failed to find .op point.  (Use ".option noopiter" to skip.)
Starting Gmin stepping
Gmin = 10
Gmin = 1.07374
Gmin = 0.115292
Gmin = 0.0123794
Gmin = 0.00132923
Gmin = 0.000142725
Gmin = 1.5325e-05
Gmin = 1.6455e-06
Gmin = 1.76685e-07
Gmin = 1.89714e-08
Gmin = 2.03704e-09
Gmin = 2.18725e-10
Gmin = 2.34854e-11
Gmin = 2.52173e-12
Gmin = 2.70769e-13
Gmin = 0
Gmin stepping succeeded in finding the operating point.


Date: Wed Mar  8 17:07:54 2023
Total elapsed time: 0.111 seconds.

tnom = 27
temp = 27
method = modified trap
totiter = 6115
traniter = 5699
tranpoints = 2105
accept = 1854
rejected = 251
matrix size = 9
fillins = 0
solver = Normal
Avg thread counts: 1.1/1.1/1.1/1.1
Matrix Compiler1: 296 bytes object code size  0.4/0.3/[0.2]
Matrix Compiler2: off  [0.2]/0.3/0.3

